@<TRIPOS>MOLECULE
ZINC19318821
   20    20     0     0     0
SMALL
USER_CHARGES
(4R,5R)-2-(dinitromethylene)imidazolidine-4,5-diol
@<TRIPOS>ATOM
      1 C1          0.6127    3.2679    0.0132 C.3       1 <0>         0.2718
      2 H1          0.9579    3.9001    0.8445 H         1 <0>         0.1250
      3 C2          1.1726    1.8353    0.0007 C.3       1 <0>         0.1940
      4 H2          1.8450    1.6017   -0.8379 H         1 <0>         0.1204
      5 N1         -0.0111    0.9658    0.0074 N.4       1 <0>        -0.5003
      6 C3         -1.1477    1.7541    0.0164 C.2       1 <0>         0.4910
      7 C4         -2.3872    1.2697    0.0187 C.2       1 <0>        -0.1856
      8 N2         -3.5436    2.1945    0.0286 N.pl3     1 <0>         0.0735
      9 O1         -3.3603    3.3987    0.0346 O.2       1 <0>        -0.1902
     10 O2         -4.6780    1.7512    0.0306 O.3       1 <0>        -0.0767
     11 N3         -2.6100   -0.1943    0.0113 N.pl3     1 <0>         0.0649
     12 O3         -1.6588   -0.9550    0.0032 O.2       1 <0>        -0.2018
     13 O4         -3.7444   -0.6377    0.0134 O.3       1 <0>        -0.0655
     14 N4         -0.8468    3.1042    0.0260 N.pl3     1 <0>        -0.6169
     15 O5          1.9668    1.6021    1.1656 O.3       1 <0>        -0.7698
     16 O6          1.0255    3.9728   -1.1593 O.3       1 <0>        -0.6109
     17 H3         -0.0057    0.3322   -0.8918 H         1 <0>         0.4608
     18 H4         -1.4994    3.9895    0.0406 H         1 <0>         0.4966
     19 H5          2.0921    4.1823   -1.3282 H         1 <0>         0.4528
     20 H6          0.0065    0.3294    0.9044 H         1 <0>         0.4670
@<TRIPOS>BOND
     1    1    2 1
     2    1   14 1
     3    1    3 1
     4    1   16 1
     5    3    4 1
     6    3    5 1
     7    3   15 1
     8    5    6 1
     9    5   17 1
    10    5   20 1
    11    6    7 2
    12    6   14 1
    13    7    8 1
    14    7   11 1
    15    8    9 2
    16    8   10 1
    17   11   12 2
    18   11   13 1
    19   14   18 1
    20   16   19 1
